Circuit: * C:\Users\ethan\Downloads\ecen340_lab3_m1a.asc

Direct Newton iteration for .op point succeeded.

Date: Thu Sep 19 15:44:16 2024
Total elapsed time: 0.341 seconds.

tnom = 27
temp = 27
method = modified trap
totiter = 6069
traniter = 6060
tranpoints = 3031
accept = 3031
rejected = 0
matrix size = 10
fillins = 0
solver = Normal
Avg thread counts: 2.2/3.4/3.4/2.2
Matrix Compiler1: 444 bytes object code size  0.4/1.5/[0.3]
Matrix Compiler2: 706 bytes object code size  0.3/1.2/[0.3]

