Circuit: * C:\Users\ethan\Documents\GitHub\ecen340\Draft1.asc

Direct Newton iteration for .op point succeeded.

i1: AVG(i(d1))=0.0491789 FROM 0 TO 8


Date: Fri Sep 20 08:24:50 2024
Total elapsed time: 0.216 seconds.

tnom = 27
temp = 27
method = modified trap
totiter = 10454
traniter = 10419
tranpoints = 4882
accept = 4153
rejected = 729
matrix size = 10
fillins = 0
solver = Normal
Avg thread counts: 1.6/2.2/2.2/1.6
Matrix Compiler1:      24 opcodes  0.2/[0.1]/0.2
Matrix Compiler2: 734 bytes object code size  0.2/0.3/[0.2]

