LTspice 24.0.12 for Windows
Circuit: * \\fs-caedm.et.byu.edu\homes\My Documents\LTspice\Draft1.asc
Start Time: Thu Sep 12 16:36:43 2024
solver = Normal
Maximum thread count: 12
tnom = 27
temp = 27
method = modified trap
Direct Newton iteration for .op point succeeded.

gain=0.003 FROM 0 TO 0.003

Total elapsed time: 0.297 seconds.

