Circuit: * C:\Users\ethan\Documents\GitHub\ecen340\LTSpice\receiver_1A.asc

Direct Newton iteration for .op point succeeded.
.step freq_lsr=1471
.step freq_lsr=1724
.step freq_lsr=2000
.step freq_lsr=2273
.step freq_lsr=2941
.step freq_lsr=3333
.step freq_lsr=3571
.step freq_lsr=3846
.step freq_lsr=4167


Measurement: pout
  step	PP(v(out))	FROM	TO
     1	1.68957	0	0.05
     2	1.69281	0	0.05
     3	1.66653	0	0.05
     4	1.6441	0	0.05
     5	1.47176	0	0.05
     6	1.33147	0	0.05
     7	1.24707	0	0.05
     8	1.13915	0	0.05
     9	1.02608	0	0.05

Measurement: avgv
  step	AVG(v(out))	FROM	TO
     1	0.00427926	0	0.05
     2	0.00233947	0	0.05
     3	0.00194184	0	0.05
     4	0.00380507	0	0.05
     5	0.00255828	0	0.05
     6	0.00336268	0	0.05
     7	0.00312463	0	0.05
     8	0.00266694	0	0.05
     9	0.0027443	0	0.05


Date: Thu Sep 26 17:13:52 2024
Total elapsed time: 16.471 seconds.

tnom = 27
temp = 27
method = modified trap
totiter = 154194
traniter = 154190
tranpoints = 77096
accept = 50003
rejected = 27093
matrix size = 14
fillins = 17
solver = Normal
Avg thread counts: 1.0/1.1/1.1/1.0
Matrix Compiler1: 2.63 KB object code size  1.1/0.6/[0.5]
Matrix Compiler2: 1.68 KB object code size  0.4/0.6/[0.3]

