Circuit: * C:\Users\ethan\OneDrive\Documents\GitHub\340-board\LTSpice\receiver\receiver_1A.asc

Direct Newton iteration for .op point succeeded.
.step freq_lsr=1471
.step freq_lsr=1724
.step freq_lsr=2000
.step freq_lsr=2273
.step freq_lsr=2941
.step freq_lsr=3333
.step freq_lsr=3571
.step freq_lsr=3846
.step freq_lsr=4167


Measurement: avgv
  step	AVG(v(out))	FROM	TO
     1	0.00391606	0	0.05
     2	0.00310521	0	0.05
     3	0.00138216	0	0.05
     4	0.00368414	0	0.05
     5	0.0018546	0	0.05
     6	0.00374109	0	0.05
     7	0.00361287	0	0.05
     8	0.00256081	0	0.05
     9	0.00272227	0	0.05

Measurement: pout
  step	PP(v(out))	FROM	TO
     1	2.33404	0	0.05
     2	2.47513	0	0.05
     3	2.56546	0	0.05
     4	2.62688	0	0.05
     5	2.6187	0	0.05
     6	2.55414	0	0.05
     7	2.49646	0	0.05
     8	2.39929	0	0.05
     9	2.28168	0	0.05


Date: Wed Oct 02 08:24:10 2024
Total elapsed time: 9.185 seconds.

tnom = 27
temp = 27
method = modified trap
totiter = 153066
traniter = 153062
tranpoints = 75770
accept = 49939
rejected = 25831
matrix size = 14
fillins = 17
solver = Normal
Matrix Compiler1:     146 opcodes  0.4/0.2/[0.2]
Matrix Compiler2: off  [0.1]/0.1/0.2

